Circuit: * C:\Users\shohei\Desktop\LTspice\tutorial\2n7002.asc

Direct Newton iteration for .op point succeeded.

Date: Sun Mar 28 17:36:57 2021
Total elapsed time: 0.793 seconds.

tnom = 27
temp = 27
method = modified trap
totiter = 180524
traniter = 180519
tranpoints = 58135
accept = 42076
rejected = 16059
matrix size = 10
fillins = 0
solver = Alternate
Matrix Compiler1: 580 bytes object code size  0.1/0.1/[0.1]
Matrix Compiler2: 834 bytes object code size  0.1/0.1/[0.1]

