Circuit: * C:\Users\shohei\Desktop\LTspice\tutorial\bjt.asc

Direct Newton iteration for .op point succeeded.
.step mybf=50
.step mybf=100
.step mybf=200

Date: Sun Mar 28 20:52:06 2021
Total elapsed time: 0.180 seconds.

tnom = 27
temp = 27
method = modified trap
totiter = 2546
traniter = 2540
tranpoints = 1238
accept = 1212
rejected = 26
matrix size = 11
fillins = 0
Matrix Compiler1: 748 bytes object code size  0.2/0.1/[0.1]
Matrix Compiler2: 957 bytes object code size  0.1/0.1/[0.1]

