Circuit: * C:\Users\shohei\Desktop\LTspice\tutorial\bs170.asc

Limiting fall time of source v1 to 0.1
Instance "m:u1:1": Width narrower than recommended for a level 3 MOSFET.
Direct Newton iteration for .op point succeeded.
Ignoring empty pin current: Ix(u1:50)
Ignoring empty pin current: Ix(u1:50)

Date: Sun Mar 28 11:33:34 2021
Total elapsed time: 0.119 seconds.

tnom = 27
temp = 27
method = modified trap
totiter = 2125
traniter = 2116
tranpoints = 1059
accept = 1058
rejected = 1
matrix size = 40
fillins = 13
solver = Alternate
Matrix Compiler1: 3.23 KB object code size  0.7/0.5/[0.3]
Matrix Compiler2: 3.47 KB object code size  0.4/0.5/[0.3]

