Circuit: * C:\Users\shohei\Desktop\LTspice\tutorial\lpf.asc

Direct Newton iteration failed to find .op point.  (Use ".option noopiter" to skip.)
Starting Gmin stepping
Gmin = 10
Gmin = 1.07374
Gmin = 0.115292
Gmin = 0.0123794
Gmin = 0.00132923
Gmin = 0.000142725
Gmin = 1.5325e-005
Gmin = 1.6455e-006
Gmin = 1.76685e-007
Gmin = 1.89714e-008
Gmin = 2.03704e-009
Gmin = 2.18725e-010
Gmin = 2.34854e-011
Gmin = 2.52173e-012
Gmin = 2.70769e-013
Gmin = 0
Gmin stepping succeeded in finding the operating point.


tcyc=0.002 FROM 0.002 TO 0.004
freq: 1/tcyc=499.999
vin(ave): AVG(v(vin))=0.197699 FROM 0.0018 TO 0.0054
vin(rms): RMS(v(vin))=1.36521 FROM 0.0018 TO 0.0054


Date: Sat Mar 27 18:13:09 2021
Total elapsed time: 0.092 seconds.

tnom = 27
temp = 27
method = modified trap
totiter = 2510
traniter = 2146
tranpoints = 1074
accept = 1068
rejected = 6
matrix size = 16
fillins = 8
solver = Alternate
Matrix Compiler1: 1.15 KB object code size  0.3/0.2/[0.2]
Matrix Compiler2: 1.64 KB object code size  0.2/0.3/[0.2]

