Circuit: * C:\Users\shohei\Desktop\LTspice\tutorial\simulation1_only_R.asc

Direct Newton iteration for .op point succeeded.

Date: Sun Mar 28 09:38:04 2021
Total elapsed time: 0.066 seconds.

tnom = 27
temp = 27
method = modified trap
totiter = 2158
traniter = 2154
tranpoints = 1056
accept = 1053
rejected = 3
matrix size = 5
fillins = 0
solver = Alternate
Matrix Compiler1: 128 bytes object code size  0.1/0.0/[0.0]
Matrix Compiler2: off  [0.0]/0.1/0.1

